data_findsym-output
_audit_creation_method FINDSYM

_cell_length_a 2.7061000000
_cell_length_b 4.4190100000
_cell_length_c 4.6871000000
_cell_angle_alpha 90.0000000000
_cell_angle_beta 90.0000000000
_cell_angle_gamma 90.0000000000
_cell_volume 56.0496680665

_symmetry_space_group_name_H-M "P 21/m 21/m 2/n (origin choice 2)"
_symmetry_Int_Tables_number 59
_space_group.reference_setting '059:-P 2ab 2a'
_space_group.transform_Pp_abc a,b,c;0,0,0

loop_
_space_group_symop_id
_space_group_symop_operation_xyz
1 x,y,z
2 x+1/2,-y,-z
3 -x,y+1/2,-z
4 -x+1/2,-y+1/2,z
5 -x,-y,-z
6 -x+1/2,y,z
7 x,-y+1/2,z
8 x+1/2,y+1/2,-z

loop_
_atom_site_label
_atom_site_type_symbol
_atom_site_symmetry_multiplicity
_atom_site_Wyckoff_label
_atom_site_fract_x
_atom_site_fract_y
_atom_site_fract_z
_atom_site_occupancy
_atom_site_fract_symmform
Fe1 Fe 2 a 0.25000 0.25000 -0.08333 1.00000 0,0,Dz
Al1 Al 2 b 0.25000 0.75000 0.58333 1.00000 0,0,Dz
